  17
        -17.51114296
 C         -0.7251961818       -0.1930055623        1.4748912324
 C         -0.5615000797       -0.0003840231        0.0063269698
 C         -0.7851915567       -1.1693491000       -0.8892744840
 C         -0.7764746832        1.3623193763       -0.5556511759
 N          2.4755027579        0.0025183824       -0.0917764758
 H          1.4506737155        0.0018325853       -0.1313203520
 H          2.7582002914       -0.8319395110        0.4087037798
 H          2.7545165543        0.7983370493        0.4698963654
 H         -1.7863938004       -0.2212077007        1.7555737669
 H         -0.2682239290        0.6240124476        2.0325410019
 H         -0.2824663341       -1.1339563302        1.7999648287
 H         -1.8565943245       -1.3416181181       -1.0566318180
 H         -0.3738834210       -2.0802505745       -0.4571751202
 H         -0.3279300633       -1.0055810784       -1.8639977383
 H         -1.8464173509        1.5773214816       -0.6762719150
 H         -0.3156998263        1.4550979488       -1.5381051513
 H         -0.3641032444        2.1279509029        0.0997391475
