  8
         -7.62931987
 C          1.2597771236       -0.0003261868        0.0149017181
 P         -0.5759441853        0.0001122120       -0.0449286315
 H         -0.6577671784       -1.5000740232       -0.0773114147
 H         -0.8879818728       -0.0002365102        1.3077467762
 H         -0.6532906264        1.5002537443       -0.0772987553
 H          1.6162870618       -0.9046977292        0.5056422919
 H          1.6144510517        0.8821323626        0.5453311106
 H          1.6550501860        0.0230608908       -1.0009905390
