%nprocshared=36
%mem=16GB
#p HSEH1PBE/Def2QZVPP opt(MaxCycles=100) freq scf(xqc, MaxConventional=200)

...

1 1
  N    1.2295062    0.3010345   -0.0000908
  C    0.0416856   -0.5519785    0.0000276
  C   -1.2355171    0.2852527    0.0000392
  H    0.0510079   -1.2022562   -0.9023869
  H    0.0511023   -1.2021372    0.9025270
  H    2.0837281   -0.3018956   -0.0000960
  H    1.2400389    0.9030371    0.8552517
  H    1.2399490    0.9029246   -0.8555135
  H   -2.1208114   -0.3849464    0.0001293
  H   -1.2738206    0.9277522    0.9051941
  H   -1.2739149    0.9276332   -0.9051962

