  8
         -7.99022407
 C         -0.7849782535       -0.0581026534       -0.0000194191
 N          0.6507694031        0.1051089607       -0.0000044310
 H          0.9994020155        0.5602632468        0.8327435274
 H          1.7948114761       -1.5418988195       -0.0008837981
 H          0.9991973277        0.5628580296       -0.8314212141
 H         -1.0767649533       -0.6260829383        0.8818241980
 H         -1.0774384854       -0.6205630106       -0.8851482943
 H         -1.3284205918        0.8971342665        0.0031785736
