8
 energy: -7.990224068324 gnorm: 0.000039092881 xtb: 6.4.1 (23d549d)
C        -0.78497825350000   -0.05810265340000   -0.00001941910000
N         0.65076940310000    0.10510896070000   -0.00000443100000
H         0.99940201550000    0.56026324680000    0.83274352740000
H         1.79481147610000   -1.54189881950000   -0.00088379810000
H         0.99919732770000    0.56285802960000   -0.83142121410000
H        -1.07676495330000   -0.62608293830000    0.88182419800000
H        -1.07743848540000   -0.62056301060000   -0.88514829430000
H        -1.32842059180000    0.89713426650000    0.00317857360000
