  12
        -14.16643803
 C         -0.7109819106       -0.6111109951       -0.2801959201
 C          0.7109283005       -0.6110925486        0.2802099689
 N          1.4249486783        0.5904537422       -0.1059174450
 N         -1.4249005918        0.5905016844        0.1058990876
 H         -1.2027364863       -1.5442474950        0.0518061829
 H         -0.6695190786       -0.6286541072       -1.3749042234
 H          1.2026094358       -1.5442737292       -0.0517534473
 H          0.6694671744       -0.6285965897        1.3749187640
 H          1.3779824953        0.7213038819       -1.1099335571
 H          2.3999504992        0.5280812337        0.1643588423
 H         -1.3778662439        0.7214277178        1.1099001989
 H         -2.3999171850        0.5281472906       -0.1643050673
