%nprocshared=36
%mem=16GB
#p HSEH1PBE/Def2QZVPP opt(MaxCycles=100) freq scf(xqc, MaxConventional=200)

...

1 1
  S   -0.9033000    0.0000000    0.0000000
  C    0.9033000    0.0000000    0.0000000
  H    1.2632000   -0.1404000    1.0216000
  H    1.2587000    0.9557000   -0.3907000
  H    1.2587000   -0.8148000   -0.6341000
  H   -1.1308000    0.9075000    0.9668000
  H   -1.1309000   -1.1347000    0.6862000

