  8
        -10.43776005
 C          0.0036027059       -0.5061917638       -0.1083473455
 N         -1.2011162055        0.2157923779        0.0964320343
 H         -1.1786655543        1.1183060038       -0.3660513925
 H         -2.0056179444       -0.3119795897       -0.2188339979
 N          1.2166923649        0.1906509908       -0.0333833152
 H          0.0018780237       -1.5083230533        0.2889066946
 H          1.0839198572        1.1940672389       -0.0004309255
 H          1.8390921341       -0.1081645158        0.7113867750
