  12
        -14.16914888
 C         -0.6949660605       -0.5855542116        0.3195948670
 C          0.6949419078       -0.5855440646       -0.3196015188
 N          1.4946281046        0.5180372725        0.1948507925
 N         -1.4946091613        0.5180581397       -0.1948457424
 H         -0.5720552774       -0.5611060500        1.4135767577
 H         -1.2031045996       -1.5147198252        0.0487023757
 H          0.5720376481       -0.5610905348       -1.4135826892
 H          1.2030501420       -1.5147236283       -0.0487148533
 H          1.1117720353        1.3998196199       -0.1307668446
 H          2.4431153826        0.4546070907       -0.1586727664
 H         -1.1117054025        1.3998246637        0.1307549554
 H         -2.4430853568        0.4546699290        0.1587121533
  12
        -14.16887585
 C          0.5673727607        0.5117562913        0.0155889285
 C         -0.5673727912       -0.5117564348        0.0155903945
 N         -1.8487875978        0.1693013537       -0.0638356569
 N          1.8487879879       -0.1693009552       -0.0638359261
 H          0.4674033682        1.1563056938        0.9075418296
 H          0.4638821657        1.1454010348       -0.8679155266
 H         -0.4673979841       -1.1562899419        0.9075533956
 H         -0.4638855693       -1.1454156599       -0.8679051929
 H         -1.9868906203        0.7540203856        0.7545577239
 H         -2.6053123382       -0.5051179350       -0.0928582681
 H          1.9868840237       -0.7540256451        0.7545523172
 H          2.6053118977        0.5051182400       -0.0928447498
  12
        -14.16643803
 C         -0.7109819106       -0.6111109951       -0.2801959201
 C          0.7109283005       -0.6110925486        0.2802099689
 N          1.4249486783        0.5904537422       -0.1059174450
 N         -1.4249005918        0.5905016844        0.1058990876
 H         -1.2027364863       -1.5442474950        0.0518061829
 H         -0.6695190786       -0.6286541072       -1.3749042234
 H          1.2026094358       -1.5442737292       -0.0517534473
 H          0.6694671744       -0.6285965897        1.3749187640
 H          1.3779824953        0.7213038819       -1.1099335571
 H          2.3999504992        0.5280812337        0.1643588423
 H         -1.3778662439        0.7214277178        1.1099001989
 H         -2.3999171850        0.5281472906       -0.1643050673
