%nprocshared=36
%mem=16GB
#p HSEH1PBE/Def2QZVPP opt(MaxCycles=100) freq scf(xqc, MaxConventional=200)

...

1 1
  N    0.7535881    0.0000194   -0.0000466
  C   -0.7039024    0.0000119    0.0000106
  H    1.1015322   -0.3245710   -0.9310399
  H    1.1015998   -0.6439347    0.7465347
  H    1.1015695    0.9685694    0.1843245
  H   -1.0837437   -1.0259994   -0.1952918
  H   -1.0837044    0.3438650    0.9862348
  H   -1.0837759    0.6821647   -0.7908659

