12
 energy: -14.169148879244 gnorm: 0.000016477564 xtb: 6.4.1 (23d549d)
C        -0.69496606050000   -0.58555421160000    0.31959486700000
C         0.69494190780000   -0.58554406460000   -0.31960151880000
N         1.49462810460000    0.51803727250000    0.19485079250000
N        -1.49460916130000    0.51805813970000   -0.19484574240000
H        -0.57205527740000   -0.56110605000000    1.41357675770000
H        -1.20310459960000   -1.51471982520000    0.04870237570000
H         0.57203764810000   -0.56109053480000   -1.41358268920000
H         1.20305014200000   -1.51472362830000   -0.04871485330000
H         1.11177203530000    1.39981961990000   -0.13076684460000
H         2.44311538260000    0.45460709070000   -0.15867276640000
H        -1.11170540250000    1.39982466370000    0.13075495540000
H        -2.44308535680000    0.45466992900000    0.15871215330000
