11
 energy: -13.608898528446 gnorm: 0.000103213758 xtb: 6.4.1 (23d549d)
C         1.46357733000000   -0.14712691390000   -0.04220983020000
C         0.00101564970000   -0.00030492440000    0.21974923260000
N        -0.56078164090000    1.27441344550000    0.01660097410000
H        -1.53831220810000    1.23216899100000   -0.24360344050000
H        -0.04708998850000    1.85015931830000   -0.64533028830000
N        -0.82080402560000   -1.11596898470000   -0.11565204360000
H         2.00189428150000    0.67093114530000    0.43188232180000
H         1.70299226290000   -0.13407912060000   -1.11562020720000
H         1.82977224590000   -1.08681742540000    0.36663066410000
H        -0.43307720060000   -1.97835418540000    0.24629402970000
H        -1.76974653760000   -0.99897371950000    0.22053951150000
