5
 energy: -4.828874889418 gnorm: 0.000012004030 xtb: 6.4.1 (23d549d)
N        -0.17902831990000   -0.00008472800000   -0.00008267400000
H         0.14172153270000    0.31506913260000    0.90369747110000
H         2.05935336180000    0.00048216280000    0.00047498650000
H         0.14294484100000    0.62526574780000   -0.72416148750000
H         0.14392149680000   -0.93963958570000   -0.17886205660000
