%nprocshared=36
%mem=16GB
#p HSEH1PBE/Def2QZVPP opt(MaxCycles=100) freq scf(xqc, MaxConventional=200)

...

1 1
N    1.6429163    1.8077531    0.0171736
H    2.0961549    2.1151893    0.9064822
H    2.3780115    1.6091216   -0.6976637
H    1.0129929    2.5640681   -0.3321056
H    1.0845060    0.9426335    0.1919814

