  10
        -13.86963953
 C          0.0025903202        0.0003353156        0.2469350727
 N         -1.3893397950        0.0251932911       -0.1401402913
 H         -1.8742011093       -0.7898624067        0.2182990925
 H         -1.8453824872        0.8560941870        0.2197669673
 N          0.6968202250       -1.1972657399        0.0123064781
 N          0.7420160859        1.1700068573        0.0107054650
 H          0.0725370145       -1.9790638345       -0.1343116699
 H          1.3793523018       -1.1457019490       -0.7453363018
 H          0.1481599338        1.9799541290       -0.1061884573
 H          1.4008170268        1.1032893145       -0.7671969129
