10
 energy: -13.869639528298 gnorm: 0.000083032844 xtb: 6.4.1 (23d549d)
C         0.00259032020000    0.00033531560000    0.24693507270000
N        -1.38933979500000    0.02519329110000   -0.14014029130000
H        -1.87420110930000   -0.78986240670000    0.21829909250000
H        -1.84538248720000    0.85609418700000    0.21976696730000
N         0.69682022500000   -1.19726573990000    0.01230647810000
N         0.74201608590000    1.17000685730000    0.01070546500000
H         0.07253701450000   -1.97906383450000   -0.13431166990000
H         1.37935230180000   -1.14570194900000   -0.74533630180000
H         0.14815993380000    1.97995412900000   -0.10618845730000
H         1.40081702680000    1.10328931450000   -0.76719691290000
